5
Properties=species:S:1:pos:R:3 energy=-417.96 pbc="F F F"
C        0.99826000      -0.00246000      -0.00436000
H        2.09021000      -0.00243000       0.00414000
H        0.63379000       1.02686000       0.00414000
H        0.62704000      -0.52773000       0.87811000
H        0.64136000      -0.50747000      -0.90540000
8
Properties=species:S:1:pos:R:3 energy=-712.42 pbc="F F F"
C        1.00404000      -0.00295000      -0.00640000
C        2.51596000      -0.00702000       0.00059000
H        0.62235000       1.02240000      -0.00164000
H        0.61411000      -0.51974000       0.87561000
H        0.62237000      -0.50842000      -0.89857000
H        2.89765000       0.50210000       0.89062000
H        2.90589000       0.50609000      -0.88357000
H        2.89763000      -1.03243000       0.00006000
6
Properties=species:S:1:pos:R:3 energy=-564.21 pbc="F F F"
C        0.98916000       0.00010000       0.00000000
C        2.32492000      -0.00017000      -0.00000000
H        0.42941000       0.93014000       0.00000000
H        0.42907000      -0.92985000       0.00000000
H        2.88500000       0.92980000      -0.00000000
H        2.88467000      -0.93020000       0.00000000
4
Properties=species:S:1:pos:R:3 energy=-404.88 pbc="F F F"
C        0.99495000       0.00000000       0.00000000
C        2.19521000       0.00000000       0.00000000
H       -0.07071000       0.00000000       0.00000000
H        3.26087000       0.00000000       0.00000000
9
Properties=species:S:1:pos:R:3 energy=-808.87 pbc="F F F"
C        1.00548000      -0.00068000       0.00431000
C        2.52013000       0.00158000       0.00124000
O        3.00440000       1.33661000       0.01174000
H        0.61753000      -1.02241000       0.01111000
H        0.61669000       0.51848000      -0.87737000
H        0.62211000       0.53003000       0.88135000
H        2.91217000      -0.50714000      -0.88547000
H        2.90599000      -0.50836000       0.88953000
H        2.66573000       1.77707000      -0.78589000
7
Properties=species:S:1:pos:R:3 energy=-677.16 pbc="F F F"
C        0.99382000       0.00934000      -0.00221000
C        2.48917000       0.03821000      -0.01128000
O        3.13977000       1.04803000      -0.26597000
H        0.65238000      -1.01326000      -0.19271000
H        0.60307000       0.66173000      -0.78594000
H        0.62986000       0.33137000       0.97585000
H        2.98792000      -0.88891000       0.31445000
9
Properties=species:S:1:pos:R:3 energy=-796.98 pbc="F F F"
C        0.98270000      -0.00179000       0.00455000
O        2.40330000       0.02363000       0.00000000
C        2.90147000       1.35426000      -0.00455000
H        0.65650000      -1.04555000       0.00312000
H        0.58759000       0.48886000      -0.89020000
H        0.59362000       0.48472000       0.90444000
H        3.99424000       1.31334000      -0.00312000
H        2.57085000       1.89049000       0.89020000
H        2.57275000       1.88342000      -0.90444000
9
Properties=species:S:1:pos:R:3 energy=-860.33 pbc="F F F"
C       -0.02667000       0.86637000      -0.05693000
C       -0.73554000      -0.45848000      -0.05710000
C        0.76283000      -0.40816000       0.04262000
H        0.01642000       1.42070000      -0.98712000
H       -0.10636000       1.48588000       0.82905000
H       -1.17212000      -0.80135000      -0.98749000
H       -1.29528000      -0.73610000       0.82854000
H        1.21789000      -0.65175000       0.99563000
H        1.34068000      -0.71716000      -0.82075000
11
Properties=species:S:1:pos:R:3 energy=-1008.49 pbc="F F F"
C        0.98998000      -0.01336000       0.00412000
C        2.50892000       0.01651000       0.00826000
C        3.04164000       1.43936000       0.00647000
H        0.63090000      -1.04741000       0.00051000
H        0.58974000       0.48838000      -0.88273000
H        0.58540000       0.48354000       0.89177000
H        2.88677000      -0.51545000      -0.87182000
H        2.88159000      -0.51146000       0.89294000
H        2.71140000       1.98078000      -0.88594000
H        4.13606000       1.43474000       0.01521000
H        2.69703000       1.98882000       0.88850000
9
Properties=species:S:1:pos:R:3 energy=-861.73 pbc="F F F"
C        0.97512000      -0.01044000       0.00782000
C        2.46737000       0.02625000       0.01091000
C        3.17572000       1.16221000      -0.01009000
H        0.62836000      -1.04800000      -0.03704000
H        0.57103000       0.51413000      -0.86362000
H        0.57263000       0.43807000       0.92139000
H        2.98993000      -0.92701000       0.03015000
H        2.69154000       2.13386000      -0.02771000
H        4.26142000       1.14094000      -0.00757000
